Version 4
SHEET 1 1172 680
WIRE -160 -208 -208 -208
WIRE -48 -208 -160 -208
WIRE 48 -208 -48 -208
WIRE 112 -208 48 -208
WIRE 480 -208 192 -208
WIRE 592 -208 480 -208
WIRE 736 -208 656 -208
WIRE 832 -208 736 -208
WIRE 912 -208 832 -208
WIRE -48 -160 -48 -208
WIRE 736 -128 736 -208
WIRE 832 -112 832 -208
WIRE 480 -96 480 -208
WIRE 560 -96 480 -96
WIRE 48 -80 48 -208
WIRE 368 -80 48 -80
WIRE -48 -48 -48 -80
WIRE 400 -48 -48 -48
WIRE -48 0 -48 -48
WIRE 384 0 48 0
WIRE -160 32 -160 -208
WIRE 560 32 560 -16
WIRE 736 80 736 -48
WIRE 80 96 -96 96
WIRE 368 96 368 -80
WIRE 368 96 304 96
WIRE 480 96 480 -96
WIRE -48 160 -48 80
WIRE 48 160 48 0
WIRE 48 160 -48 160
WIRE 80 160 48 160
WIRE 400 160 400 -48
WIRE 400 160 304 160
WIRE 432 176 400 176
WIRE -48 192 -48 160
WIRE 736 192 736 160
WIRE 736 192 672 192
WIRE 480 208 480 192
WIRE 560 208 560 96
WIRE 560 208 480 208
WIRE 80 224 16 224
WIRE 384 224 384 0
WIRE 384 224 304 224
WIRE 736 224 736 192
WIRE 80 288 32 288
WIRE 512 288 304 288
WIRE 640 288 608 288
WIRE 32 368 32 288
WIRE 368 368 368 96
WIRE 368 368 32 368
WIRE 16 384 16 224
WIRE 400 384 400 176
WIRE 400 384 16 384
WIRE 560 384 560 352
WIRE 672 384 672 192
WIRE 672 384 560 384
WIRE -160 464 -160 96
WIRE -96 464 -96 96
WIRE -96 464 -160 464
WIRE -48 464 -48 256
WIRE -48 464 -96 464
WIRE 480 464 480 208
WIRE 480 464 -48 464
WIRE 640 464 640 288
WIRE 640 464 480 464
WIRE 736 464 736 304
WIRE 736 464 640 464
WIRE 832 464 832 -48
WIRE 832 464 736 464
WIRE 736 496 736 464
FLAG 912 -208 OUTPUT
IOPIN 912 -208 Out
FLAG -208 -208 INPUT
IOPIN -208 -208 In
FLAG 736 496 GND
IOPIN 736 496 BiDir
SYMBOL Misc\\NE555 192 192 R0
SYMATTR InstName U1
SYMBOL cap -64 192 R0
SYMATTR InstName C1
SYMATTR Value 22n
SYMBOL res -64 -16 R0
SYMATTR InstName R1
SYMATTR Value 12k
SYMBOL res -64 -176 R0
SYMATTR InstName R2
SYMATTR Value 5k
SYMBOL Magnetic\\ferrite\ bead 112 -240 R0
SYMATTR InstName L1
SYMATTR Value 1000µ
SYMATTR SpiceLine Ipk=0.7 Rser=1.69 Rpar=0 Cpar=0
SYMBOL cap -176 32 R0
SYMATTR InstName C2
SYMATTR Value 470µ
SYMBOL res 544 -112 R0
SYMATTR InstName R3
SYMATTR Value 2.2k
SYMBOL cap 544 32 R0
SYMATTR InstName C3
SYMATTR Value 100p
SYMBOL diode 592 -192 R270
WINDOW 0 32 32 VTop 2
WINDOW 3 0 32 VBottom 2
SYMATTR InstName D1
SYMATTR Value UF4007
SYMBOL res 720 -144 R0
SYMATTR InstName R4
SYMATTR Value 250k
SYMBOL res 720 64 R0
SYMATTR InstName R5
SYMATTR Value 600
SYMBOL res 720 208 R0
SYMATTR InstName R6
SYMATTR Value 400
SYMBOL cap 816 -112 R0
SYMATTR InstName C4
SYMATTR Value 4µ
SYMATTR SpiceLine V=400
SYMBOL npn 512 352 R270
WINDOW 0 69 46 VLeft 2
WINDOW 3 93 106 VLeft 2
SYMATTR InstName Q2
SYMATTR Value BC547B
SYMBOL nmos 432 96 R0
SYMATTR InstName M2
SYMATTR Value IRF740
