Version 4
SHEET 1 2484 816
WIRE 592 -16 -48 -16
WIRE 784 -16 672 -16
WIRE 1456 0 864 0
WIRE 864 96 864 0
WIRE 896 96 864 96
WIRE 1072 112 1008 112
WIRE 1184 112 1136 112
WIRE 1264 112 1184 112
WIRE 1312 112 1264 112
WIRE -48 128 -48 -16
WIRE -48 128 -112 128
WIRE 16 128 -48 128
WIRE 288 128 224 128
WIRE 448 128 368 128
WIRE 512 128 480 128
WIRE 656 128 576 128
WIRE 784 128 784 -16
WIRE 784 128 736 128
WIRE 896 128 784 128
WIRE 1456 128 1456 0
WIRE 1456 128 1424 128
WIRE 1536 128 1456 128
WIRE 1184 144 1184 112
WIRE 1264 144 1264 112
WIRE 1312 144 1264 144
WIRE 480 160 480 128
WIRE 480 224 480 192
WIRE 112 272 112 224
WIRE 1184 272 1184 224
WIRE 800 336 608 336
WIRE 960 336 800 336
WIRE 1536 336 1536 128
WIRE 1536 336 1040 336
WIRE 800 384 800 336
WIRE 528 464 528 432
WIRE 800 480 800 448
WIRE 1392 544 1392 512
WIRE 1600 544 1600 512
WIRE 272 560 272 512
WIRE 608 560 608 336
WIRE 672 560 608 560
WIRE 944 576 736 576
WIRE 1152 576 1120 576
WIRE 528 592 528 544
WIRE 672 592 528 592
WIRE 1088 592 1056 592
WIRE 1120 592 1120 576
WIRE 1120 592 1088 592
WIRE 1296 592 1264 592
WIRE 1344 592 1296 592
WIRE 1488 592 1456 592
WIRE 1552 592 1488 592
WIRE 1744 592 1664 592
WIRE 1888 592 1824 592
WIRE 944 608 896 608
WIRE 1120 608 1120 592
WIRE 1152 608 1120 608
WIRE 272 624 272 592
WIRE 704 640 704 608
WIRE 704 640 624 640
WIRE 704 656 704 640
WIRE 1488 656 1488 592
WIRE 1888 656 1488 656
WIRE 1392 688 1392 640
WIRE 1600 688 1600 640
WIRE 528 704 528 672
WIRE 624 704 624 640
WIRE 624 704 528 704
WIRE 896 704 896 608
WIRE 992 704 896 704
WIRE 1088 704 1088 592
WIRE 1088 704 1072 704
WIRE 896 768 896 704
WIRE 1120 768 896 768
WIRE 1296 768 1296 592
WIRE 1296 768 1184 768
FLAG 272 624 0
FLAG 272 512 POWER
IOPIN 272 512 BiDir
FLAG -112 128 POWER
IOPIN -112 128 In
FLAG 112 272 0
FLAG 480 224 0
FLAG 1184 272 0
FLAG 800 480 0
FLAG 704 544 POWER
IOPIN 704 544 In
FLAG 704 656 0
FLAG 528 432 POWER
IOPIN 528 432 In
FLAG 1392 688 0
FLAG 1600 688 0
FLAG 1392 512 POWER
IOPIN 1392 512 In
FLAG 1600 512 POWER
IOPIN 1600 512 In
SYMBOL boost 112 160 R0
SYMATTR InstName X1
SYMBOL MiniSyms4\\voltage- 272 576 R0
WINDOW 123 0 0 Left 2
WINDOW 39 0 0 Left 2
SYMATTR InstName V1
SYMATTR Value 9
SYMBOL res 272 144 R270
WINDOW 0 32 56 VTop 2
WINDOW 3 0 56 VBottom 2
SYMATTR InstName R1
SYMATTR Value 100000k
SYMBOL cap 512 144 R270
WINDOW 0 32 32 VTop 2
WINDOW 3 0 32 VBottom 2
SYMATTR InstName C1
SYMATTR Value 1.5p
SYMBOL MiniSyms4\\voltage- 480 176 R0
WINDOW 123 0 0 Left 2
WINDOW 39 0 0 Left 2
SYMATTR InstName V2
SYMATTR Value PULSE(400 0 5m 0.01u 10u 4u 10m 4)
SYMBOL res 640 144 R270
WINDOW 0 32 56 VTop 2
WINDOW 3 0 56 VBottom 2
SYMATTR InstName R2
SYMATTR Value 100k
SYMBOL res 576 0 R270
WINDOW 0 32 56 VTop 2
WINDOW 3 0 56 VBottom 2
SYMATTR InstName R3
SYMATTR Value 10k
SYMBOL Dig_Add\\CD4xxx\\cd4011b 944 48 R0
SYMATTR InstName U1
SYMBOL cap 1072 128 R270
WINDOW 0 32 32 VTop 2
WINDOW 3 0 32 VBottom 2
SYMATTR InstName C2
SYMATTR Value 40µ
SYMBOL res 1168 128 R0
SYMATTR InstName R4
SYMATTR Value 2.2k
SYMBOL Dig_Add\\CD4xxx\\cd4011b 1360 64 R0
SYMATTR InstName U2
SYMBOL res 944 352 R270
WINDOW 0 32 56 VTop 2
WINDOW 3 0 56 VBottom 2
SYMATTR InstName R5
SYMATTR Value 100k
SYMBOL polcap 784 384 R0
WINDOW 3 24 56 Left 2
SYMATTR Value 0.1µ
SYMATTR InstName C3
SYMATTR Description Capacitor
SYMATTR Type cap
SYMATTR SpiceLine V=6.3 Irms=0 Rser=4 Lser=0
SYMBOL Comparators\\LT1017 704 576 R0
SYMATTR InstName U3
SYMBOL res 512 448 R0
SYMATTR InstName R6
SYMATTR Value 100k
SYMBOL res 512 576 R0
SYMATTR InstName R7
SYMATTR Value 50k
SYMBOL SBORKA\\Logika\\74AHC1G14 1392 544 R0
SYMATTR InstName U6
SYMBOL SBORKA\\Logika\\74AHC1G14 1600 544 R0
SYMATTR InstName U7
SYMBOL res 1728 608 R270
WINDOW 0 32 56 VTop 2
WINDOW 3 0 56 VBottom 2
SYMATTR InstName R9
SYMATTR Value 1k
SYMBOL SBORKA\\QUARTZ_CRYSTAL\\XTAL_param 1872 592 R0
SYMATTR InstName U8
SYMBOL Dig_Add\\CD4xxx\\cd4011b 992 528 R0
SYMATTR InstName U4
SYMBOL Dig_Add\\CD4xxx\\cd4011b 1200 528 R0
SYMATTR InstName U5
SYMBOL res 976 720 R270
WINDOW 0 32 56 VTop 2
WINDOW 3 0 56 VBottom 2
SYMATTR InstName R8
SYMATTR Value 1000k
SYMBOL cap 1120 784 R270
WINDOW 0 32 32 VTop 2
WINDOW 3 0 32 VBottom 2
SYMATTR InstName C4
SYMATTR Value 130p
TEXT 200 696 Left 2 !.tran 100m
